Version 4
SHEET 1 1028 680
WIRE 272 -192 -112 -192
WIRE 784 -192 272 -192
WIRE 432 -160 208 -160
WIRE 432 -112 432 -160
WIRE 400 -96 128 -96
WIRE 400 -64 320 -64
WIRE 688 -64 640 -64
WIRE 928 -64 768 -64
WIRE 128 -48 128 -96
WIRE 272 0 272 -192
WIRE 432 0 432 -48
WIRE 432 0 272 0
WIRE 320 32 320 -64
WIRE 448 32 320 32
WIRE 560 32 528 32
WIRE 640 32 640 -64
WIRE -112 64 -112 -192
WIRE 320 64 320 32
WIRE 784 80 784 -192
WIRE 640 96 640 32
WIRE 752 96 640 96
WIRE 928 112 928 -64
WIRE 928 112 816 112
WIRE 752 128 640 128
WIRE 640 144 640 128
WIRE 320 160 320 144
WIRE 448 160 320 160
WIRE 560 160 528 160
WIRE 272 192 272 0
WIRE 432 192 272 192
WIRE -112 224 -112 144
WIRE 432 240 432 192
WIRE 320 256 320 160
WIRE 400 256 320 256
WIRE 400 288 128 288
WIRE 128 336 128 288
WIRE 208 336 208 -160
WIRE 432 336 432 304
WIRE 432 336 208 336
WIRE -112 528 -112 304
WIRE 432 528 432 336
WIRE 432 528 -112 528
WIRE 784 528 784 144
WIRE 784 528 432 528
FLAG 128 32 0
FLAG 128 416 0
SYMBOL voltage -112 48 R0
SYMATTR InstName V1
SYMBOL voltage -112 208 R0
SYMATTR InstName V2
SYMBOL voltage 128 -64 R0
SYMATTR InstName V3
SYMBOL voltage 128 320 R0
SYMATTR InstName V4
SYMBOL Opamps\\AD8629 432 -144 R0
SYMATTR InstName U1
SYMBOL Opamps\\AD8629 432 208 R0
SYMATTR InstName U2
SYMBOL res 304 48 R0
SYMATTR InstName R1
SYMBOL res 544 16 R90
WINDOW 0 0 56 VBottom 2
WINDOW 3 32 56 VTop 2
SYMATTR InstName R2
SYMBOL res 544 144 R90
WINDOW 0 0 56 VBottom 2
WINDOW 3 32 56 VTop 2
SYMATTR InstName R3
SYMBOL res 656 16 R90
WINDOW 0 0 56 VBottom 2
WINDOW 3 32 56 VTop 2
SYMATTR InstName R4
SYMBOL res 656 144 R90
WINDOW 0 0 56 VBottom 2
WINDOW 3 32 56 VTop 2
SYMATTR InstName R5
SYMBOL res 784 -80 R90
WINDOW 0 0 56 VBottom 2
WINDOW 3 32 56 VTop 2
SYMATTR InstName R6
SYMBOL Opamps\\AD8629 784 48 R0
SYMATTR InstName U3
