Version 4
SHEET 1 880 680
WIRE 640 -48 -112 -48
WIRE 768 0 544 0
WIRE -112 64 -112 -48
WIRE 480 96 480 0
WIRE 768 96 768 0
WIRE 768 96 560 96
WIRE -112 208 -112 144
WIRE -112 208 -240 208
WIRE 640 224 640 -48
WIRE 304 240 192 240
WIRE 480 240 480 96
WIRE 480 240 384 240
WIRE 608 240 480 240
WIRE 640 240 640 224
WIRE 768 256 768 96
WIRE 768 256 672 256
WIRE -240 272 -240 208
WIRE 608 272 480 272
WIRE -112 288 -112 208
WIRE 192 288 192 240
WIRE 480 320 480 272
WIRE 192 416 192 368
WIRE -112 480 -112 368
WIRE 640 480 640 288
WIRE 640 480 -112 480
FLAG 480 320 0
FLAG 192 416 0
FLAG -240 272 0
SYMBOL voltage -112 48 R0
WINDOW 123 0 0 Left 0
WINDOW 39 0 0 Left 0
SYMATTR InstName V1
SYMATTR Value 5V
SYMBOL voltage -112 272 R0
WINDOW 123 0 0 Left 0
WINDOW 39 0 0 Left 0
SYMATTR InstName V2
SYMATTR Value 5V
SYMBOL voltage 192 272 R0
WINDOW 123 0 0 Left 0
WINDOW 39 0 0 Left 0
SYMATTR InstName V3
SYMATTR Value SINE(0 1 50)
SYMBOL Opamps\\AD8629 640 192 R0
SYMATTR InstName U1
SYMBOL res 400 224 R90
WINDOW 0 0 56 VBottom 2
WINDOW 3 32 56 VTop 2
SYMATTR InstName R1
SYMATTR Value 10K
SYMBOL res 576 80 R90
WINDOW 0 0 56 VBottom 2
WINDOW 3 32 56 VTop 2
SYMATTR InstName R2
SYMATTR Value 20k
SYMBOL cap 544 -16 R90
WINDOW 0 0 32 VBottom 2
WINDOW 3 32 32 VTop 2
SYMATTR InstName C1
SYMATTR Value 7.85
TEXT -112 512 Left 2 !.tran 0 5.1 5 0.01
TEXT -104 552 Left 2 ;option plotwinsize=0
